<span class="hljs-comment">! Highlight.js test for energyplus</span>

<span class="hljs-comment">! Environmental Emissions:        None</span>
<span class="hljs-comment">! Utility Tariffs:                None</span>
<span class="hljs-meta version_">
  Version,26.1;</span>

  <span class="hljs-type">Timestep</span>,<span class="hljs-number">4</span><span class="hljs-operator">;</span>

  <span class="hljs-type">Building</span>,
    Simple One Zone (Wireframe DXF),  <span class="hljs-comment">!- Name</span>
    <span class="hljs-number">0</span>,                       <span class="hljs-comment">!- North Axis {deg}</span>
    <span class="hljs-keyword">Suburbs</span>,                 <span class="hljs-comment">!- Terrain</span>
    <span class="hljs-number">0.04</span>,                    <span class="hljs-comment">!- Loads Convergence Tolerance Value {W}</span>
    <span class="hljs-number">0.004</span>,                   <span class="hljs-comment">!- Temperature Convergence Tolerance Value {deltaC}</span>
    <span class="hljs-keyword">MinimalShadowing</span>,        <span class="hljs-comment">!- Solar Distribution</span>
    <span class="hljs-number">30</span>,                      <span class="hljs-comment">!- Maximum Number of Warmup Days</span>
    <span class="hljs-number">6</span><span class="hljs-operator">;</span>                       <span class="hljs-comment">!- Minimum Number of Warmup Day</span>

  <span class="hljs-type">HeatBalanceAlgorithm</span>,<span class="hljs-keyword">ConductionTransferFunction</span><span class="hljs-operator">;</span>

  <span class="hljs-type">SurfaceConvectionAlgorithm:Inside</span>,<span class="hljs-keyword">TARP</span><span class="hljs-operator">;</span>

  <span class="hljs-type">SurfaceConvectionAlgorithm:Outside</span>,DOE-<span class="hljs-number">2</span><span class="hljs-operator">;</span>

  <span class="hljs-type">SimulationControl</span>,
    <span class="hljs-literal">No</span>,                      <span class="hljs-comment">!- Do Zone Sizing Calculation</span>
    <span class="hljs-literal">No</span>,                      <span class="hljs-comment">!- Do System Sizing Calculation</span>
    <span class="hljs-literal">No</span>,                      <span class="hljs-comment">!- Do Plant Sizing Calculation</span>
    <span class="hljs-literal">Yes</span>,                     <span class="hljs-comment">!- Run Simulation for Sizing Periods</span>
    <span class="hljs-literal">Yes</span>,                     <span class="hljs-comment">!- Run Simulation for Weather File Run Periods</span>
    <span class="hljs-literal">No</span>,                      <span class="hljs-comment">!- Do HVAC Sizing Simulation for Sizing Periods</span>
    <span class="hljs-number">1</span><span class="hljs-operator">;</span>                       <span class="hljs-comment">!- Maximum Number of HVAC Sizing Simulation Passes</span>

<span class="hljs-section">!-   ===========  ALL OBJECTS IN CLASS: OUTPUT:VARIABLE ===========</span>

  <span class="hljs-type">Output:Variable</span>,*,Site Total Sky Cover,<span class="hljs-keyword">hourly</span><span class="hljs-operator">;</span>
